2024_89_CemigReconfigurationCases/1_AlimsCemig/UHSG27/UHSG27SegmentosMT.dss
new line.TR10001202 bus1=BMT168370129.1,bus2=BMT168370130.1,Phases=1,Linecode=CAB202_3_1,Length=0.216046000,Units=km
new line.TR10001209 bus1=BMT168370129.1,bus2=BMT5991890B.1,Phases=1,Linecode=CAB202_3_1,Length=0.339320000,Units=km
new line.TR10001216 bus1=BMT5991890B.1,bus2=BMT168370131.1,Phases=1,Linecode=CAB202_3_1,Length=0.081908000,Units=km
new line.TR10157281 bus1=BMT172244283.1,bus2=BMT2636867B.1,Phases=1,Linecode=CAB202_3_1,Length=0.090944000,Units=km
new line.TR10637348 bus1=BMT103623466.3,bus2=BMT6899685B.3,Phases=1,Linecode=CAB202_3_1,Length=0.040791000,Units=km
new line.TR10637355 bus1=BMT6899685B.3,bus2=BMT103623473.3,Phases=1,Linecode=CAB202_3_1,Length=0.015995000,Units=km
new line.TR10637362 bus1=BMT103623473.3,bus2=BMT103623480.3,Phases=1,Linecode=CAB202_3_1,Length=0.122975000,Units=km
new line.TR10637404 bus1=BMT103623473.3,bus2=BMT6899748B.3,Phases=1,Linecode=CAB202_3_1,Length=0.125198000,Units=km
new line.TR10637418 bus1=BMT6899748B.3,bus2=BMT103623487.3,Phases=1,Linecode=CAB202_3_1,Length=0.049643000,Units=km
new line.TR10641947 bus1=BMT103618608.2,bus2=BMT103618622.2,Phases=1,Linecode=CAB202_3_1,Length=0.183625000,Units=km
new line.TR10641954 bus1=BMT103618622.2,bus2=BMT6903570B.2,Phases=1,Linecode=CAB202_3_1,Length=0.182391000,Units=km
new line.TR10641961 bus1=BMT6903570B.2,bus2=BMT6903584B.2,Phases=1,Linecode=CAB202_3_1,Length=0.085060000,Units=km
new line.TR10641968 bus1=BMT6903584B.2,bus2=BMT6903591B.2,Phases=1,Linecode=CAB202_3_1,Length=0.069614000,Units=km
new line.TR10641975 bus1=BMT6903591B.2,bus2=BMT6903605B.2,Phases=1,Linecode=CAB202_3_1,Length=0.166837000,Units=km
new line.TR10642010 bus1=BMT6903605B.2,bus2=BMT6903626B.2,Phases=1,Linecode=CAB202_3_1,Length=0.114937000,Units=km
new line.TR10642017 bus1=BMT6903626B.2,bus2=BMT6903633B.2,Phases=1,Linecode=CAB202_3_1,Length=0.124405000,Units=km
new line.TR10642024 bus1=BMT6903633B.2,bus2=BMT6903647B.2,Phases=1,Linecode=CAB202_3_1,Length=0.114680000,Units=km
new line.TR10642031 bus1=BMT6903647B.2,bus2=BMT6903654B.2,Phases=1,Linecode=CAB202_3_1,Length=0.129490000,Units=km
new line.TR10642045 bus1=BMT103618629.2,bus2=BMT6903675B.2,Phases=1,Linecode=CAB202_3_1,Length=0.135817000,Units=km
new line.TR10642059 bus1=BMT6903654B.2,bus2=BMT6903724B.2,Phases=1,Linecode=CAB202_3_1,Length=0.242114000,Units=km
new line.TR10642066 bus1=BMT6903724B.2,bus2=BMT103618629.2,Phases=1,Linecode=CAB202_3_1,Length=0.185616000,Units=km
new line.TR10642290 bus1=BMT103618622.2,bus2=BMT6903976B.2,Phases=1,Linecode=CAB202_3_1,Length=0.109765000,Units=km
new line.TR10642297 bus1=BMT6903976B.2,bus2=BMT6903990B.2,Phases=1,Linecode=CAB202_3_1,Length=0.107758000,Units=km
new line.TR10642304 bus1=BMT6903990B.2,bus2=BMT103618636.2,Phases=1,Linecode=CAB202_3_1,Length=0.209870000,Units=km
new line.TR10642542 bus1=BMT103618629.2,bus2=BMT103618650.2,Phases=1,Linecode=CAB202_3_1,Length=0.093355000,Units=km
new line.TR10642549 bus1=BMT103618650.2,bus2=BMT6904361B.2,Phases=1,Linecode=CAB202_3_1,Length=0.186928000,Units=km
new line.TR10642556 bus1=BMT6904361B.2,bus2=BMT103618657.2,Phases=1,Linecode=CAB202_3_1,Length=0.135626000,Units=km
new line.TR10642843 bus1=BMT6903675B.2,bus2=BMT103618643.2,Phases=1,Linecode=CAB202_3_1,Length=0.157829000,Units=km
new line.TR10642850 bus1=BMT103618643.2,bus2=BMT6904669B.2,Phases=1,Linecode=CAB202_3_1,Length=0.095445000,Units=km
new line.TR10642857 bus1=BMT6904669B.2,bus2=BMT103618664.2,Phases=1,Linecode=CAB202_3_1,Length=0.130332000,Units=km
new line.TR10643046 bus1=BMT103618699.2,bus2=BMT6903850B.2,Phases=1,Linecode=CAB202_3_1,Length=0.070584000,Units=km
new line.TR10643053 bus1=BMT6903850B.2,bus2=BMT6903857B.2,Phases=1,Linecode=CAB202_3_1,Length=0.123405000,Units=km
new line.TR10643067 bus1=BMT103618706.2,bus2=BMT6904767B.2,Phases=1,Linecode=CAB202_3_1,Length=0.356060000,Units=km
new line.TR10643074 bus1=BMT6904767B.2,bus2=BMT6904809B.2,Phases=1,Linecode=CAB202_3_1,Length=0.112156000,Units=km
new line.TR10643081 bus1=BMT6904809B.2,bus2=BMT6904816B.2,Phases=1,Linecode=CAB202_3_1,Length=0.238633000,Units=km
new line.TR10643088 bus1=BMT6904816B.2,bus2=BMT103618713.2,Phases=1,Linecode=CAB202_3_1,Length=0.440552000,Units=km
new line.TR10643123 bus1=BMT103618713.2,bus2=BMT6904858B.2,Phases=1,Linecode=CAB202_3_1,Length=0.228187000,Units=km
new line.TR10643130 bus1=BMT6904858B.2,bus2=BMT103618720.2,Phases=1,Linecode=CAB202_3_1,Length=0.036235000,Units=km
new line.TR10643137 bus1=BMT103618720.2,bus2=BMT103618734.2,Phases=1,Linecode=CAB202_3_1,Length=0.117583000,Units=km
new line.TR10643144 bus1=BMT103618734.2,bus2=BMT103618741.2,Phases=1,Linecode=CAB202_3_1,Length=0.209966000,Units=km
new line.TR10643340 bus1=BMT103618664.2,bus2=BMT6904746B.2,Phases=1,Linecode=CAB202_3_1,Length=0.137132000,Units=km
new line.TR10643347 bus1=BMT6904746B.2,bus2=BMT6904760B.2,Phases=1,Linecode=CAB202_3_1,Length=0.124434000,Units=km
new line.TR10643375 bus1=BMT6905222B.2,bus2=BMT103618678.2,Phases=1,Linecode=CAB202_3_1,Length=0.026673000,Units=km
new line.TR10643487 bus1=BMT6904760B.2,bus2=BMT6904795B.2,Phases=1,Linecode=CAB202_3_1,Length=0.265172000,Units=km
new line.TR10643494 bus1=BMT6904795B.2,bus2=BMT6904823B.2,Phases=1,Linecode=CAB202_3_1,Length=0.165518000,Units=km
new line.TR10643501 bus1=BMT6904823B.2,bus2=BMT6904830B.2,Phases=1,Linecode=CAB202_3_1,Length=0.104520000,Units=km
new line.TR10643886 bus1=BMT6904830B.2,bus2=BMT6904879B.2,Phases=1,Linecode=CAB202_3_1,Length=0.082065000,Units=km
new line.TR10643893 bus1=BMT6904879B.2,bus2=BMT103618671.2,Phases=1,Linecode=CAB202_3_1,Length=0.064380000,Units=km
new line.TR10643900 bus1=BMT103618671.2,bus2=BMT6905740B.2,Phases=1,Linecode=CAB202_3_1,Length=0.090518000,Units=km
new line.TR10643907 bus1=BMT6905740B.2,bus2=BMT103618685.2,Phases=1,Linecode=CAB202_3_1,Length=0.165983000,Units=km
new line.TR10643956 bus1=BMT103618671.2,bus2=BMT6905810B.2,Phases=1,Linecode=CAB202_3_1,Length=0.052979000,Units=km
new line.TR10643963 bus1=BMT6905810B.2,bus2=BMT6905817B.2,Phases=1,Linecode=CAB202_3_1,Length=0.103964000,Units=km
new line.TR10643970 bus1=BMT6905817B.2,bus2=BMT6905824B.2,Phases=1,Linecode=CAB202_3_1,Length=0.090970000,Units=km
new line.TR10643977 bus1=BMT6905824B.2,bus2=BMT6905831B.2,Phases=1,Linecode=CAB202_3_1,Length=0.110020000,Units=km
new line.TR10643998 bus1=BMT6905831B.2,bus2=BMT103618692.2,Phases=1,Linecode=CAB202_3_1,Length=0.119594000,Units=km
new line.TR10644418 bus1=BMT103618713.2,bus2=BMT103618727.2,Phases=1,Linecode=CAB202_3_1,Length=0.092142000,Units=km
new line.TR10279592 bus1=BMT6486293B.2,bus2=BMT171462745.2,Phases=1,Linecode=CAB202_3_1,Length=0.171268000,Units=km
new line.TR10424289 bus1=BMT172364064.3,bus2=BMT172364067.3,Phases=1,Linecode=CAB202_3_1,Length=0.128813000,Units=km
new line.TR10424296 bus1=BMT172364067.3,bus2=BMT103619077.3,Phases=1,Linecode=CAB202_3_1,Length=0.112763000,Units=km
new line.TR10424457 bus1=BMT3172521B.3,bus2=BMT6682657B.3,Phases=1,Linecode=CAB202_3_1,Length=0.145081000,Units=km
new line.TR10424471 bus1=BMT6682657B.3,bus2=BMT158048513.3,Phases=1,Linecode=CAB202_3_1,Length=0.103408000,Units=km
new line.TR10424499 bus1=BMT158048513.3,bus2=BMT158048516.3,Phases=1,Linecode=CAB202_3_1,Length=0.127957000,Units=km
new line.TR10424632 bus1=BMT158048513.3,bus2=BMT158048517.3,Phases=1,Linecode=CAB202_3_1,Length=0.155737000,Units=km
new line.TR10683611 bus1=BMT103620477.1,bus2=BMT6945773B.1,Phases=1,Linecode=CAB202_3_1,Length=0.427038000,Units=km
new line.TR10683737 bus1=BMT6945773B.1,bus2=BMT6945843B.1,Phases=1,Linecode=CAB202_3_1,Length=0.195131000,Units=km
new line.TR10683772 bus1=BMT6945843B.1,bus2=BMT103620484.1,Phases=1,Linecode=CAB202_3_1,Length=0.130920000,Units=km
new line.TR10693306 bus1=BMT159689538.1,bus2=BMT6953501B.1,Phases=1,Linecode=CAB202_3_1,Length=0.049320000,Units=km
new line.TR10693313 bus1=BMT6953501B.1,bus2=BMT6953515B.1,Phases=1,Linecode=CAB202_3_1,Length=0.217352000,Units=km
new line.TR10693362 bus1=BMT6953515B.1,bus2=BMT6953536B.1,Phases=1,Linecode=CAB202_3_1,Length=0.190898000,Units=km
new line.TR10693390 bus1=BMT6953536B.1,bus2=BMT6953543B.1,Phases=1,Linecode=CAB202_3_1,Length=0.090524000,Units=km
new line.TR10693397 bus1=BMT6953543B.1,bus2=BMT6953550B.1,Phases=1,Linecode=CAB202_3_1,Length=0.056700000,Units=km
new line.TR10693411 bus1=BMT6953550B.1,bus2=BMT6953578B.1,Phases=1,Linecode=CAB202_3_1,Length=0.072969000,Units=km
new line.TR10693432 bus1=BMT6953578B.1,bus2=BMT6953599B.1,Phases=1,Linecode=CAB202_3_1,Length=0.101357000,Units=km
new line.TR10693453 bus1=BMT6953599B.1,bus2=BMT6953641B.1,Phases=1,Linecode=CAB202_3_1,Length=0.071566000,Units=km
new line.TR10693460 bus1=BMT6953641B.1,bus2=BMT6953648B.1,Phases=1,Linecode=CAB202_3_1,Length=0.056594000,Units=km
new line.TR10693523 bus1=BMT6953648B.1,bus2=BMT6953655B.1,Phases=1,Linecode=CAB202_3_1,Length=0.075903000,Units=km
new line.TR10693530 bus1=BMT6953655B.1,bus2=BMT6953662B.1,Phases=1,Linecode=CAB202_3_1,Length=0.065416000,Units=km
new line.TR10693537 bus1=BMT6953662B.1,bus2=BMT6953697B.1,Phases=1,Linecode=CAB202_3_1,Length=0.098152000,Units=km
new line.TR10693544 bus1=BMT6953697B.1,bus2=BMT6953704B.1,Phases=1,Linecode=CAB202_3_1,Length=0.092068000,Units=km
new line.TR10693551 bus1=BMT6953704B.1,bus2=BMT6953732B.1,Phases=1,Linecode=CAB202_3_1,Length=0.075566000,Units=km
new line.TR10693558 bus1=BMT6953732B.1,bus2=BMT6953746B.1,Phases=1,Linecode=CAB202_3_1,Length=0.066866000,Units=km
new line.TR10693586 bus1=BMT159689539.1,bus2=BMT6953788B.1,Phases=1,Linecode=CAB202_3_1,Length=0.114002000,Units=km
new line.TR10693593 bus1=BMT6953788B.1,bus2=BMT6953802B.1,Phases=1,Linecode=CAB202_3_1,Length=0.060808000,Units=km
new line.TR10693600 bus1=BMT6953802B.1,bus2=BMT6953809B.1,Phases=1,Linecode=CAB202_3_1,Length=0.109216000,Units=km
new line.TR10693607 bus1=BMT6953809B.1,bus2=BMT6953816B.1,Phases=1,Linecode=CAB202_3_1,Length=0.112258000,Units=km
new line.TR10693621 bus1=BMT6953816B.1,bus2=BMT6953830B.1,Phases=1,Linecode=CAB202_3_1,Length=0.079000000,Units=km
new line.TR10693628 bus1=BMT6953830B.1,bus2=BMT6953837B.1,Phases=1,Linecode=CAB202_3_1,Length=0.079031000,Units=km
new line.TR10693635 bus1=BMT6953837B.1,bus2=BMT103621296.1,Phases=1,Linecode=CAB202_3_1,Length=0.043253000,Units=km
new line.TR10693642 bus1=BMT103621296.1,bus2=BMT6953865B.1,Phases=1,Linecode=CAB202_3_1,Length=0.044269000,Units=km
new line.TR10693649 bus1=BMT6953865B.1,bus2=BMT159689541.1,Phases=1,Linecode=CAB202_3_1,Length=0.222120000,Units=km
new line.TR10693656 bus1=BMT159689541.1,bus2=BMT6953886B.1,Phases=1,Linecode=CAB202_3_1,Length=0.113704000,Units=km
new line.TR10693670 bus1=BMT6953886B.1,bus2=BMT6953893B.1,Phases=1,Linecode=CAB202_3_1,Length=0.111950000,Units=km
new line.TR10693698 bus1=BMT6953893B.1,bus2=BMT6953900B.1,Phases=1,Linecode=CAB202_3_1,Length=0.130207000,Units=km
new line.TR10693705 bus1=BMT6953900B.1,bus2=BMT6953907B.1,Phases=1,Linecode=CAB202_3_1,Length=0.079805000,Units=km
new line.TR10693712 bus1=BMT6953907B.1,bus2=BMT159689542.1,Phases=1,Linecode=CAB202_3_1,Length=0.048739000,Units=km
new line.TR10693719 bus1=BMT159689542.1,bus2=BMT6953921B.1,Phases=1,Linecode=CAB202_3_1,Length=0.060396000,Units=km
new line.TR10693726 bus1=BMT6953921B.1,bus2=BMT6953935B.1,Phases=1,Linecode=CAB202_3_1,Length=0.063932000,Units=km
new line.TR10693733 bus1=BMT6953935B.1,bus2=BMT6953942B.1,Phases=1,Linecode=CAB202_3_1,Length=0.046224000,Units=km
new line.TR10693740 bus1=BMT6953942B.1,bus2=BMT159689544.1,Phases=1,Linecode=CAB202_3_1,Length=0.076375000,Units=km
new line.TR10693747 bus1=BMT159689544.1,bus2=BMT6953956B.1,Phases=1,Linecode=CAB202_3_1,Length=0.111829000,Units=km
new line.TR10693754 bus1=BMT6953956B.1,bus2=BMT6953977B.1,Phases=1,Linecode=CAB202_3_1,Length=0.057253000,Units=km
new line.TR10693761 bus1=BMT6953977B.1,bus2=BMT159689545.1,Phases=1,Linecode=CAB202_3_1,Length=0.076133000,Units=km
new line.TR10693768 bus1=BMT159689545.1,bus2=BMT6954019B.1,Phases=1,Linecode=CAB202_3_1,Length=0.049188000,Units=km
new line.TR10693775 bus1=BMT6954019B.1,bus2=BMT159689547.1,Phases=1,Linecode=CAB202_3_1,Length=0.080030000,Units=km
new line.TR10693824 bus1=BMT159689545.1,bus2=BMT159689548.1,Phases=1,Linecode=CAB202_3_1,Length=0.171515000,Units=km
new line.TR10693873 bus1=BMT159689544.1,bus2=BMT159689546.1,Phases=1,Linecode=CAB103_3_1,Length=0.061592000,Units=km
new line.TR10694356 bus1=BMT159689541.1,bus2=BMT159689543.1,Phases=1,Linecode=CAB202_3_1,Length=0.123138000,Units=km
new line.TR10694545 bus1=BMT159689539.1,bus2=BMT159689540.1,Phases=1,Linecode=CAB103_3_1,Length=0.020019000,Units=km
new line.TR10695938 bus1=BMT103621366.1,bus2=BMT103621373.1,Phases=1,Linecode=CAB202_3_1,Length=0.342467000,Units=km
new line.TR10695945 bus1=BMT103621373.1,bus2=BMT6957533B.1,Phases=1,Linecode=CAB202_3_1,Length=0.053797000,Units=km
new line.TR10695952 bus1=BMT6957533B.1,bus2=BMT6957547B.1,Phases=1,Linecode=CAB202_3_1,Length=0.031391000,Units=km
new line.TR10696008 bus1=BMT103621373.1,bus2=BMT103621387.1,Phases=1,Linecode=CAB202_3_1,Length=0.125824000,Units=km
new line.TR10173199 bus1=BMT103622220.3,bus2=BMT103622227.3,Phases=1,Linecode=CAB202_3_1,Length=0.139770000,Units=km
new line.TR10173206 bus1=BMT103622220.3,bus2=BMT103622234.3,Phases=1,Linecode=CAB202_3_1,Length=0.091779000,Units=km
new line.TR10632581 bus1=BMT103619462.3,bus2=BMT6895457B.3,Phases=1,Linecode=CAB202_3_1,Length=0.182102000,Units=km
new line.TR10632595 bus1=BMT6895457B.3,bus2=BMT103619476.3,Phases=1,Linecode=CAB202_3_1,Length=0.231056000,Units=km
new line.TR10632903 bus1=BMT172244285.1,bus2=BMT172244290.1,Phases=1,Linecode=CAB202_3_1,Length=0.020875000,Units=km
new line.TR10632910 bus1=BMT172244290.1,bus2=BMT103612497.1,Phases=1,Linecode=CAB202_3_1,Length=0.061014000,Units=km
new line.TR10633554 bus1=BMT103623354.3,bus2=BMT103623368.3,Phases=1,Linecode=CAB103_3_1,Length=0.037564000,Units=km
new line.TR10761787 bus1=BMT103621611.1,bus2=BMT7023158B.1,Phases=1,Linecode=CAB103_3_1,Length=0.042624000,Units=km
new line.TR10761794 bus1=BMT7023158B.1,bus2=BMT103621625.1,Phases=1,Linecode=CAB103_3_1,Length=0.071844000,Units=km
new line.TR10761836 bus1=BMT103621625.1,bus2=BMT7023179B.1,Phases=1,Linecode=CAB202_3_1,Length=0.228555000,Units=km
new line.TR10761857 bus1=BMT7023179B.1,bus2=BMT103621632.1,Phases=1,Linecode=CAB202_3_1,Length=0.030453000,Units=km
new line.TR10761885 bus1=BMT103621632.1,bus2=BMT103621639.1,Phases=1,Linecode=CAB103_3_1,Length=0.028275000,Units=km
new line.TR10762032 bus1=BMT103621632.1,bus2=BMT103621646.1,Phases=1,Linecode=CAB202_3_1,Length=0.103430000,Units=km
new line.TR10762039 bus1=BMT103621646.1,bus2=BMT7023452B.1,Phases=1,Linecode=CAB202_3_1,Length=0.100370000,Units=km
new line.TR10762137 bus1=BMT7023452B.1,bus2=BMT103621653.1,Phases=1,Linecode=CAB202_3_1,Length=0.144007000,Units=km
new line.TR10762144 bus1=BMT103621653.1,bus2=BMT7023522B.1,Phases=1,Linecode=CAB202_3_1,Length=0.108651000,Units=km
new line.TR10762165 bus1=BMT103621653.1,bus2=BMT103621667.1,Phases=1,Linecode=CAB103_3_1,Length=0.059621000,Units=km
new line.TR10762235 bus1=BMT7023522B.1,bus2=BMT7023585B.1,Phases=1,Linecode=CAB202_3_1,Length=0.117234000,Units=km
new line.TR10762242 bus1=BMT7023585B.1,bus2=BMT7023592B.1,Phases=1,Linecode=CAB202_3_1,Length=0.066016000,Units=km
new line.TR10762249 bus1=BMT7023592B.1,bus2=BMT103621660.1,Phases=1,Linecode=CAB202_3_1,Length=0.057261000,Units=km
new line.TR11034080 bus1=BMT2631127B.1,bus2=BMT149762803.1,Phases=1,Linecode=CAB202_3_1,Length=0.087063000,Units=km
new line.TR11034087 bus1=BMT149762803.1,bus2=BMT149762806.1,Phases=1,Linecode=CAB202_3_1,Length=0.193998000,Units=km
new line.TR11034157 bus1=BMT149762803.1,bus2=BMT7261998B.1,Phases=1,Linecode=CAB202_3_1,Length=0.463152000,Units=km
new line.TR11034171 bus1=BMT7261998B.1,bus2=BMT7262012B.1,Phases=1,Linecode=CAB202_3_1,Length=0.108646000,Units=km
new line.TR11034185 bus1=BMT7262012B.1,bus2=BMT7262026B.1,Phases=1,Linecode=CAB202_3_1,Length=0.163055000,Units=km
new line.TR11034227 bus1=BMT7262026B.1,bus2=BMT149762807.1,Phases=1,Linecode=CAB202_3_1,Length=0.123039000,Units=km
new line.TR11034437 bus1=BMT103621450.1,bus2=BMT7262292B.1,Phases=1,Linecode=CAB202_3_1,Length=0.072983000,Units=km
new line.TR11034458 bus1=BMT7262292B.1,bus2=BMT7262299B.1,Phases=1,Linecode=CAB202_3_1,Length=0.067992000,Units=km
new line.TR11034465 bus1=BMT7262299B.1,bus2=BMT7262306B.1,Phases=1,Linecode=CAB202_3_1,Length=0.083519000,Units=km
new line.TR11034472 bus1=BMT7262306B.1,bus2=BMT7262320B.1,Phases=1,Linecode=CAB202_3_1,Length=0.183419000,Units=km
new line.TR11034479 bus1=BMT7262320B.1,bus2=BMT7262327B.1,Phases=1,Linecode=CAB202_3_1,Length=0.080979000,Units=km
new line.TR11034486 bus1=BMT7262327B.1,bus2=BMT7262334B.1,Phases=1,Linecode=CAB202_3_1,Length=0.106585000,Units=km
new line.TR11034507 bus1=BMT7262334B.1,bus2=BMT7262341B.1,Phases=1,Linecode=CAB202_3_1,Length=0.083835000,Units=km
new line.TR11034528 bus1=BMT7262341B.1,bus2=BMT7262348B.1,Phases=1,Linecode=CAB202_3_1,Length=0.059394000,Units=km
new line.TR11034577 bus1=BMT7262348B.1,bus2=BMT7262355B.1,Phases=1,Linecode=CAB202_3_1,Length=0.089597000,Units=km
new line.TR11034584 bus1=BMT7262355B.1,bus2=BMT154912715.1,Phases=1,Linecode=CAB202_3_1,Length=0.073800000,Units=km
new line.TR11035872 bus1=BMT163727217.1,bus2=BMT103621212.1,Phases=1,Linecode=CAB202_3_1,Length=0.102363000,Units=km
new line.TR11035879 bus1=BMT103621212.1,bus2=BMT163727219.1,Phases=1,Linecode=CAB202_3_1,Length=0.034048000,Units=km
new line.TR11036145 bus1=BMT162549837.1,bus2=BMT7264000B.1,Phases=1,Linecode=CAB103_3_1,Length=0.033276000,Units=km
new line.TR11036187 bus1=BMT7264000B.1,bus2=BMT162549838.1,Phases=1,Linecode=CAB103_3_1,Length=0.039950000,Units=km
new line.TR11036201 bus1=BMT162549838.1,bus2=BMT7264063B.1,Phases=1,Linecode=CAB202_3_1,Length=0.019641000,Units=km
new line.TR11036215 bus1=BMT7264063B.1,bus2=BMT162549839.1,Phases=1,Linecode=CAB202_3_1,Length=0.052595000,Units=km
new line.TR11036250 bus1=BMT165218768.2,bus2=BMT165218772.2,Phases=1,Linecode=CAB202_3_1,Length=0.015128000,Units=km
new line.TR11036257 bus1=BMT165218772.2,bus2=BMT165218773.2,Phases=1,Linecode=CAB202_3_1,Length=0.328405000,Units=km
new line.TR11036264 bus1=BMT165218772.2,bus2=BMT7264091B.2,Phases=1,Linecode=CAB202_3_1,Length=0.059013000,Units=km
new line.TR11036285 bus1=BMT7264091B.2,bus2=BMT165218774.2,Phases=1,Linecode=CAB202_3_1,Length=0.303870000,Units=km
new line.TR11036306 bus1=BMT162549839.1,bus2=BMT7264119B.1,Phases=1,Linecode=CAB202_3_1,Length=0.072101000,Units=km
new line.TR11036313 bus1=BMT7264119B.1,bus2=BMT7264140B.1,Phases=1,Linecode=CAB202_3_1,Length=0.077769000,Units=km
new line.TR11036334 bus1=BMT7264140B.1,bus2=BMT162549840.1,Phases=1,Linecode=CAB202_3_1,Length=0.077033000,Units=km
new line.TR11036362 bus1=BMT162549840.1,bus2=BMT162549841.1,Phases=1,Linecode=CAB202_3_1,Length=0.046675000,Units=km
new line.TR11036383 bus1=BMT162549841.1,bus2=BMT162549842.1,Phases=1,Linecode=CAB202_3_1,Length=0.082828000,Units=km
new line.TR11036523 bus1=BMT168370145.1,bus2=BMT103614247.1,Phases=1,Linecode=CAB103_3_1,Length=0.033605000,Units=km
new line.TR11036530 bus1=BMT103614261.1,bus2=BMT7264371B.1,Phases=1,Linecode=CAB202_3_1,Length=0.236229000,Units=km
new line.TR11036572 bus1=BMT7264371B.1,bus2=BMT7264378B.1,Phases=1,Linecode=CAB202_3_1,Length=0.203934000,Units=km
new line.TR11036579 bus1=BMT7264378B.1,bus2=BMT7264399B.1,Phases=1,Linecode=CAB202_3_1,Length=0.122157000,Units=km
new line.TR11036586 bus1=BMT7264399B.1,bus2=BMT103614268.1,Phases=1,Linecode=CAB202_3_1,Length=0.126450000,Units=km
new line.TR10406194 bus1=BMT160647791.1,bus2=BMT6664065B.1,Phases=1,Linecode=CAB202_3_1,Length=0.046996000,Units=km
new line.TR10406201 bus1=BMT6664065B.1,bus2=BMT6664086B.1,Phases=1,Linecode=CAB202_3_1,Length=0.077853000,Units=km
new line.TR10406215 bus1=BMT6664086B.1,bus2=BMT160647792.1,Phases=1,Linecode=CAB202_3_1,Length=0.257149000,Units=km
new line.TR10407209 bus1=BMT149762798.1,bus2=BMT6664884B.1,Phases=1,Linecode=CAB202_3_1,Length=0.152592000,Units=km
new line.TR10407216 bus1=BMT6664884B.1,bus2=BMT6664905B.1,Phases=1,Linecode=CAB202_3_1,Length=0.142364000,Units=km
new line.TR10407223 bus1=BMT6664905B.1,bus2=BMT6664912B.1,Phases=1,Linecode=CAB202_3_1,Length=0.076270000,Units=km
new line.TR10407230 bus1=BMT6664912B.1,bus2=BMT149762808.1,Phases=1,Linecode=CAB202_3_1,Length=0.253885000,Units=km
new line.TR10409197 bus1=BMT169425188.2,bus2=BMT169425189.2,Phases=1,Linecode=CAB202_3_1,Length=0.075773000,Units=km
new line.TR10409211 bus1=BMT169425189.2,bus2=BMT6667012B.2,Phases=1,Linecode=CAB202_3_1,Length=0.057119000,Units=km
new line.TR10409253 bus1=BMT6667012B.2,bus2=BMT6667019B.2,Phases=1,Linecode=CAB202_3_1,Length=0.039279000,Units=km
new line.TR10409281 bus1=BMT6667019B.2,bus2=BMT6667033B.2,Phases=1,Linecode=CAB202_3_1,Length=0.121444000,Units=km
new line.TR10409295 bus1=BMT6667033B.2,bus2=BMT6667054B.2,Phases=1,Linecode=CAB202_3_1,Length=0.124017000,Units=km
new line.TR10409309 bus1=BMT6667054B.2,bus2=BMT6667061B.2,Phases=1,Linecode=CAB202_3_1,Length=0.107033000,Units=km
new line.TR10409344 bus1=BMT6667061B.2,bus2=BMT6667068B.2,Phases=1,Linecode=CAB202_3_1,Length=0.077385000,Units=km
new line.TR10409351 bus1=BMT6667068B.2,bus2=BMT169425190.2,Phases=1,Linecode=CAB202_3_1,Length=0.127391000,Units=km
new line.TR10409358 bus1=BMT169425190.2,bus2=BMT169425192.2,Phases=1,Linecode=CAB202_3_1,Length=0.114017000,Units=km
new line.TR10409365 bus1=BMT169425189.2,bus2=BMT6666984B.2,Phases=1,Linecode=CAB202_3_1,Length=0.026823000,Units=km
new line.TR10409372 bus1=BMT6666984B.2,bus2=BMT169425191.2,Phases=1,Linecode=CAB202_3_1,Length=0.175574000,Units=km
new line.TR10413985 bus1=BMT1517014B.3,bus2=BMT6671373B.3,Phases=1,Linecode=CAB102_3_1,Length=0.024992000,Units=km
new line.TR10413992 bus1=BMT6671373B.3,bus2=BMT1517021B.3,Phases=1,Linecode=CAB102_3_1,Length=0.021993000,Units=km
new line.TR10418171 bus1=BMT160647786.1,bus2=BMT160647787.1,Phases=1,Linecode=CAB202_3_1,Length=0.046995000,Units=km
new line.TR10418178 bus1=BMT160647787.1,bus2=BMT159313101.1,Phases=1,Linecode=CAB202_3_1,Length=0.263846000,Units=km
new line.TR10604714 bus1=BMT159418350.1,bus2=BMT159418351.1,Phases=1,Linecode=CAB202_3_1,Length=0.046740000,Units=km
new line.TR10604721 bus1=BMT159418351.1,bus2=BMT159418352.1,Phases=1,Linecode=CAB202_3_1,Length=0.086424000,Units=km
new line.TR10604784 bus1=BMT159418351.1,bus2=BMT6868066B.1,Phases=1,Linecode=CAB202_3_1,Length=0.079980000,Units=km
new line.TR10604973 bus1=BMT6868066B.1,bus2=BMT6868248B.1,Phases=1,Linecode=CAB202_3_1,Length=0.107876000,Units=km
new line.TR10604987 bus1=BMT6868248B.1,bus2=BMT6868311B.1,Phases=1,Linecode=CAB202_3_1,Length=0.129807000,Units=km
new line.TR10605295 bus1=BMT6868311B.1,bus2=BMT6868598B.1,Phases=1,Linecode=CAB202_3_1,Length=0.096844000,Units=km
new line.TR10605365 bus1=BMT6868598B.1,bus2=BMT159418353.1,Phases=1,Linecode=CAB202_3_1,Length=0.066107000,Units=km
new line.TR10605470 bus1=BMT159418353.1,bus2=BMT159418354.1,Phases=1,Linecode=CAB103_3_1,Length=0.026917000,Units=km
new line.TR10605638 bus1=BMT159418353.1,bus2=BMT6868864B.1,Phases=1,Linecode=CAB202_3_1,Length=0.128961000,Units=km
new line.TR10605652 bus1=BMT6868864B.1,bus2=BMT6868871B.1,Phases=1,Linecode=CAB202_3_1,Length=0.046857000,Units=km
...
