2024_89_CemigReconfigurationCases/1_AlimsCemig/UHSG27/UHSG27ChavesMT.dss
new line.CTR12489 bus1=BMT103620911.1,bus2=BMT103620946.1,Phases=1,LineCode=tieSwitch1,Length=0.001,Units=km,switch=T !numEQ 164143
new line.CTR139007 bus1=BMT103615899.1.2.3,bus2=BMT103616032.1.2.3,Phases=3,LineCode=tieSwitch,Length=0.001,Units=km,switch=T !numEQ 113449
new line.CTR154589 bus1=BMT103615500.3,bus2=BMT103622185.3,Phases=1,LineCode=tieSwitch1,Length=0.001,Units=km,switch=T !numEQ 133447
new line.CTR243853 bus1=BMT103622346.2,bus2=BMT103622353.2,Phases=1,LineCode=tieSwitch1,Length=0.001,Units=km,switch=T !numEQ 49515
new line.CTR432783 bus1=BMT103623858.2,bus2=BMT103623872.2,Phases=1,LineCode=tieSwitch1,Length=0.001,Units=km,switch=T !numEQ 49506
new line.CTR432804 bus1=BMT103622262.2,bus2=BMT103623263.2,Phases=1,LineCode=tieSwitch1,Length=0.001,Units=km,switch=T !numEQ 49513
new line.CTR432811 bus1=BMT103623074.2,bus2=BMT103623123.2,Phases=1,LineCode=tieSwitch1,Length=0.001,Units=km,switch=T !numEQ 49517
new line.CTR432818 bus1=BMT103623137.2,bus2=BMT103623144.2,Phases=1,LineCode=tieSwitch1,Length=0.001,Units=km,switch=T !numEQ 49519
new line.CTR432825 bus1=BMT103623095.2,bus2=BMT103623193.2,Phases=1,LineCode=tieSwitch1,Length=0.001,Units=km,switch=T !numEQ 49521
new line.CTR432832 bus1=BMT103614541.1,bus2=BMT103614555.1,Phases=1,LineCode=tieSwitch1,Length=0.001,Units=km,switch=T !numEQ 49524
new line.CTR432839 bus1=BMT103614478.1,bus2=BMT103614499.1,Phases=1,LineCode=tieSwitch1,Length=0.001,Units=km,switch=T !numEQ 49526
new line.CTR432846 bus1=BMT103622416.2,bus2=BMT103623046.2,Phases=1,LineCode=tieSwitch1,Length=0.001,Units=km,switch=T !numEQ 49528
new line.CTR432853 bus1=BMT103622423.2,bus2=BMT103623032.2,Phases=1,LineCode=tieSwitch1,Length=0.001,Units=km,switch=T !numEQ 49530
new line.CTR435527 bus1=BMT103615717.2,bus2=BMT103619413.2,Phases=1,LineCode=tieSwitch1,Length=0.001,Units=km,switch=T !numEQ 186420
new line.CTR436073 bus1=BMT103620526.1,bus2=BMT103620897.1,Phases=1,LineCode=tieSwitch1,Length=0.001,Units=km,switch=T !numEQ 164142
new line.CTR57086 bus1=BMT103615493.3,bus2=BMT103622213.3,Phases=1,LineCode=tieSwitch1,Length=0.001,Units=km,switch=T !numEQ 48314
new line.CTR730220 bus1=BMT103617012.2,bus2=BMT152216120.2,Phases=1,LineCode=tieSwitch1,Length=0.001,Units=km,switch=T !numEQ 224319
new line.CTR861089 bus1=BMT165218776.2,bus2=BMT159926921.2,Phases=1,LineCode=tieSwitch1,Length=0.001,Units=km,switch=T !numEQ 380294
open line.CTR861089 term=1
new line.CTR861093 bus1=BMT159919926.2,bus2=BMT159919610.2,Phases=1,LineCode=tieSwitch1,Length=0.001,Units=km,switch=T !numEQ 380293
open line.CTR861093 term=1
new line.CTR876906 bus1=BMT157824629.2,bus2=BMT157952180.2,Phases=1,LineCode=tieSwitch1,Length=0.001,Units=km,switch=T !numEQ 384671
new line.CTR891747 bus1=BMT163843069.1,bus2=BMT163843105.1,Phases=1,LineCode=tieSwitch1,Length=0.001,Units=km,switch=T !numEQ 260391
new line.CTRR32954 bus1=BMT168518457.1.2.3,bus2=BMT151917087.1.2.3,Phases=3,LineCode=tieSwitch,Length=0.001,Units=km,switch=T !numEQ 124638
new line.CTR159433 bus1=BMT103612497.1,bus2=BMT169203348.1,Phases=1,LineCode=tieSwitch1,Length=0.001,Units=km,switch=T !numEQ 130419
new line.CTR205301266 bus1=BMT2205301269.1.2.3,bus2=BMT2912805683.1.2.3,Phases=3,LineCode=tieSwitch,Length=0.001,Units=km,switch=T !numEQ 
new line.CTR205301378 bus1=BMT2912805683.1.2.3,bus2=BMT2208589641.1.2.3,Phases=3,LineCode=tieSwitch,Length=0.001,Units=km,switch=T !numEQ 
new line.CTR206592 bus1=BMT103613876.1,bus2=BMT103614583.1,Phases=1,LineCode=tieSwitch1,Length=0.001,Units=km,switch=T !numEQ 187147
new line.CTR227396 bus1=BMT103621002.1,bus2=BMT103621030.1,Phases=1,LineCode=tieSwitch1,Length=0.001,Units=km,switch=T !numEQ 65995
new line.CTR336799 bus1=BMT103622668.2,bus2=BMT159919919.2,Phases=1,LineCode=tieSwitch1,Length=0.001,Units=km,switch=T !numEQ 133344
new line.CTR336897 bus1=BMT103622640.2,bus2=BMT103622731.2,Phases=1,LineCode=tieSwitch1,Length=0.001,Units=km,switch=T !numEQ 133370
new line.CTR445705 bus1=BMT103619329.3,bus2=BMT103619343.3,Phases=1,LineCode=tieSwitch1,Length=0.001,Units=km,switch=T !numEQ 73728
new line.CTR476771 bus1=BMT155905786.1,bus2=BMT155906054.1,Phases=1,LineCode=tieSwitch1,Length=0.001,Units=km,switch=T !numEQ 189773
new line.CTR480971 bus1=BMT103618517.2,bus2=BMT103618573.2,Phases=1,LineCode=tieSwitch1,Length=0.001,Units=km,switch=T !numEQ 180614
new line.CTR53383 bus1=BMT103612721.1,bus2=BMT103613029.1,Phases=1,LineCode=tieSwitch1,Length=0.001,Units=km,switch=T !numEQ 48994
new line.CTR53411 bus1=BMT103616053.1.2.3,bus2=BMT103618958.1.2.3,Phases=3,LineCode=tieSwitch,Length=0.001,Units=km,switch=T !numEQ 48918
new line.CTR53635 bus1=BMT103615822.1.2.3,bus2=BMT171216317.1.2.3,Phases=3,LineCode=tieSwitch,Length=0.001,Units=km,switch=T !numEQ 48914
new line.CTR539113 bus1=BMT103622815.2,bus2=BMT165218764.2,Phases=1,LineCode=tieSwitch1,Length=0.001,Units=km,switch=T !numEQ 73704
new line.CTR641348 bus1=BMT103615892.2,bus2=BMT171343030.2,Phases=1,LineCode=tieSwitch1,Length=0.001,Units=km,switch=T !numEQ 48917
new line.CTR691118 bus1=BMT103617397.2,bus2=BMT169425187.2,Phases=1,LineCode=tieSwitch1,Length=0.001,Units=km,switch=T !numEQ 209176
new line.CTR694380 bus1=BMT103619077.3,bus2=BMT158048510.3,Phases=1,LineCode=tieSwitch1,Length=0.001,Units=km,switch=T !numEQ 209166
new line.CTR809936 bus1=BMT122401197.2,bus2=BMT122401323.2,Phases=1,LineCode=tieSwitch1,Length=0.001,Units=km,switch=T !numEQ 305253
new line.CTR851438 bus1=BMT150213223.2,bus2=BMT150213224.2,Phases=1,LineCode=tieSwitch1,Length=0.001,Units=km,switch=T !numEQ 382820
new line.CTR896513 bus1=BMT165341593.3,bus2=BMT165341630.3,Phases=1,LineCode=tieSwitch1,Length=0.001,Units=km,switch=T !numEQ 260179
new line.CTRR33489 bus1=BMT103619987.1,bus2=BMT172435925.1,Phases=1,LineCode=tieSwitch1,Length=0.001,Units=km,switch=T !numEQ 287832
new line.CTR232240 bus1=BMT103622017.3,bus2=BMT104385059.3,Phases=1,LineCode=tieSwitch1,Length=0.001,Units=km,switch=T !numEQ 50773
new line.CTR233514 bus1=BMT103611727.1.2.3,bus2=BMT160109988.1.2.3,Phases=3,LineCode=tieSwitch,Length=0.001,Units=km,switch=T !numEQ 49670
new line.CTR233794 bus1=BMT103620442.1,bus2=BMT172939005.1,Phases=1,LineCode=tieSwitch1,Length=0.001,Units=km,switch=T !numEQ 65727
new line.CTR234046 bus1=BMT103614331.1,bus2=BMT103614569.1,Phases=1,LineCode=tieSwitch1,Length=0.001,Units=km,switch=T !numEQ 49557
new line.CTR234060 bus1=BMT103617110.3,bus2=BMT103618286.3,Phases=1,LineCode=tieSwitch1,Length=0.001,Units=km,switch=T !numEQ 49559
new line.CTR234123 bus1=BMT103623767.2,bus2=BMT103623851.2,Phases=1,LineCode=tieSwitch1,Length=0.001,Units=km,switch=T !numEQ 49505
new line.CTR234179 bus1=BMT103622297.2,bus2=BMT103623249.2,Phases=1,LineCode=tieSwitch1,Length=0.001,Units=km,switch=T !numEQ 49512
new line.CTR234193 bus1=BMT103622276.2,bus2=BMT172109089.2,Phases=1,LineCode=tieSwitch1,Length=0.001,Units=km,switch=T !numEQ 49514
new line.CTR234221 bus1=BMT103623130.2,bus2=BMT103623158.2,Phases=1,LineCode=tieSwitch1,Length=0.001,Units=km,switch=T !numEQ 49518
new line.CTR234235 bus1=BMT103623088.2,bus2=BMT103623172.2,Phases=1,LineCode=tieSwitch1,Length=0.001,Units=km,switch=T !numEQ 49520
new line.CTR234277 bus1=BMT103622395.2,bus2=BMT103623221.2,Phases=1,LineCode=tieSwitch1,Length=0.001,Units=km,switch=T !numEQ 49468
new line.CTR428226 bus1=BMT103615136.3,bus2=BMT161014966.3,Phases=1,LineCode=tieSwitch1,Length=0.001,Units=km,switch=T !numEQ 48400
new line.CTR428331 bus1=BMT103615556.3,bus2=BMT103622066.3,Phases=1,LineCode=tieSwitch1,Length=0.001,Units=km,switch=T !numEQ 48432
new line.CTR428569 bus1=BMT103616396.2,bus2=BMT164369572.2,Phases=1,LineCode=tieSwitch1,Length=0.001,Units=km,switch=T !numEQ 48503
new line.CTR428933 bus1=BMT103613470.1,bus2=BMT158196176.1,Phases=1,LineCode=tieSwitch1,Length=0.001,Units=km,switch=T !numEQ 48614
new line.CTR428975 bus1=BMT130894780.2,bus2=BMT157827210.2,Phases=1,LineCode=tieSwitch1,Length=0.001,Units=km,switch=T !numEQ 48627
new line.CTR430116 bus1=BMT103615647.2,bus2=BMT171608959.2,Phases=1,LineCode=tieSwitch1,Length=0.001,Units=km,switch=T !numEQ 48629
new line.CTR430956 bus1=BMT151821672.1.2.3,bus2=BMT170805421.1.2.3,Phases=3,LineCode=tieSwitch,Length=0.001,Units=km,switch=T !numEQ 48894
new line.CTR430970 bus1=BMT103615213.3,bus2=BMT163573617.3,Phases=1,LineCode=tieSwitch1,Length=0.001,Units=km,switch=T !numEQ 48898
new line.CTR430977 bus1=BMT149762015.1,bus2=BMT149762788.1,Phases=1,LineCode=tieSwitch1,Length=0.001,Units=km,switch=T !numEQ 48900
new line.CTR430991 bus1=BMT103611909.1.2.3,bus2=BMT103623494.1.2.3,Phases=3,LineCode=tieSwitch,Length=0.001,Units=km,switch=T !numEQ 48902
new line.CTR430998 bus1=BMT160102223.1.2.3,bus2=BMT164376069.1.2.3,Phases=3,LineCode=tieSwitch,Length=0.001,Units=km,switch=T !numEQ 48903
new line.CTR431005 bus1=BMT103615528.2,bus2=BMT103622115.2,Phases=1,LineCode=tieSwitch1,Length=0.001,Units=km,switch=T !numEQ 48906
new line.CTR431012 bus1=BMT103615584.1.2.3,bus2=BMT168518434.1.2.3,Phases=3,LineCode=tieSwitch,Length=0.001,Units=km,switch=T !numEQ 48908
new line.CTR431019 bus1=BMT103619840.1,bus2=BMT103619896.1,Phases=1,LineCode=tieSwitch1,Length=0.001,Units=km,switch=T !numEQ 48910
new line.CTR431040 bus1=BMT103616095.1.2.3,bus2=BMT158950394.1.2.3,Phases=3,LineCode=tieSwitch,Length=0.001,Units=km,switch=T !numEQ 48919
new line.CTR431054 bus1=BMT103616522.1.2.3,bus2=BMT169379410.1.2.3,Phases=3,LineCode=tieSwitch,Length=0.001,Units=km,switch=T !numEQ 48923
new line.CTR431068 bus1=BMT103622304.2,bus2=BMT171462721.2,Phases=1,LineCode=tieSwitch1,Length=0.001,Units=km,switch=T !numEQ 48928
new line.CTR431138 bus1=BMT103622577.2,bus2=BMT165349449.2,Phases=1,LineCode=tieSwitch1,Length=0.001,Units=km,switch=T !numEQ 48945
new line.CTR431299 bus1=BMT103622388.2,bus2=BMT103623235.2,Phases=1,LineCode=tieSwitch1,Length=0.001,Units=km,switch=T !numEQ 48996
new line.CTR431320 bus1=BMT103615682.3,bus2=BMT103619455.3,Phases=1,LineCode=tieSwitch1,Length=0.001,Units=km,switch=T !numEQ 49002
new line.CTR431355 bus1=BMT103615654.1,bus2=BMT103621933.1,Phases=1,LineCode=tieSwitch1,Length=0.001,Units=km,switch=T !numEQ 49016
new line.CTR431439 bus1=BMT103617145.1,bus2=BMT103618146.1,Phases=1,LineCode=tieSwitch1,Length=0.001,Units=km,switch=T !numEQ 49056
new line.CTR431488 bus1=BMT103611846.1,bus2=BMT166448086.1,Phases=1,LineCode=tieSwitch1,Length=0.001,Units=km,switch=T !numEQ 49052
new line.CTR431593 bus1=BMT103613960.1,bus2=BMT168342922.1,Phases=1,LineCode=tieSwitch1,Length=0.001,Units=km,switch=T !numEQ 49085
new line.CTR432139 bus1=BMT103618468.2,bus2=BMT103618783.2,Phases=1,LineCode=tieSwitch1,Length=0.001,Units=km,switch=T !numEQ 49259
new line.CTR432454 bus1=BMT103616333.2,bus2=BMT103618944.2,Phases=1,LineCode=tieSwitch1,Length=0.001,Units=km,switch=T !numEQ 49400
new line.CTR489322 bus1=BMT103612742.1,bus2=BMT103612931.1,Phases=1,LineCode=tieSwitch1,Length=0.001,Units=km,switch=T !numEQ 190861
new line.CTR539967 bus1=BMT103623774.2,bus2=BMT103623781.2,Phases=1,LineCode=tieSwitch1,Length=0.001,Units=km,switch=T !numEQ 70459
new line.CTR543229 bus1=BMT103614387.1,bus2=BMT103614513.1,Phases=1,LineCode=tieSwitch1,Length=0.001,Units=km,switch=T !numEQ 49522
new line.CTR695451 bus1=BMT171462579.2,bus2=BMT171462642.2,Phases=1,LineCode=tieSwitch1,Length=0.001,Units=km,switch=T !numEQ 261173
new line.CTR697824 bus1=BMT103614198.1,bus2=BMT150435745.1,Phases=1,LineCode=tieSwitch1,Length=0.001,Units=km,switch=T !numEQ 213139
new line.CTR698482 bus1=BMT103613106.1,bus2=BMT103613120.1,Phases=1,LineCode=tieSwitch1,Length=0.001,Units=km,switch=T !numEQ 209124
new line.CTR699756 bus1=BMT103619175.3,bus2=BMT170123484.3,Phases=1,LineCode=tieSwitch1,Length=0.001,Units=km,switch=T !numEQ 209219
new line.CTR758577 bus1=BMT103618818.2,bus2=BMT157824628.2,Phases=1,LineCode=tieSwitch1,Length=0.001,Units=km,switch=T !numEQ 224132
new line.CTR761699 bus1=BMT103612091.1.2.3,bus2=BMT161059501.1.2.3,Phases=3,LineCode=tieSwitch,Length=0.001,Units=km,switch=T !numEQ 199551
new line.CTR821794 bus1=BMT131003189.2,bus2=BMT131003350.2,Phases=1,LineCode=tieSwitch1,Length=0.001,Units=km,switch=T !numEQ 303768
new line.CTRR38203 bus1=BMT164376073.1.2.3,bus2=BMT164376075.1.2.3,Phases=3,LineCode=tieSwitch,Length=0.001,Units=km,switch=T !numEQ 260274
new line.CTRR38296 bus1=BMT103616319.1.2.3,bus2=BMT119150103.1.2.3,Phases=3,LineCode=tieSwitch,Length=0.001,Units=km,switch=T !numEQ 260269
new line.CTR23535 bus1=BMT103620407.1,bus2=BMT103620491.1,Phases=1,LineCode=tieSwitch1,Length=0.001,Units=km,switch=T !numEQ 143306
new line.CTR235460 bus1=BMT103613666.1,bus2=BMT160834070.1,Phases=1,LineCode=tieSwitch1,Length=0.001,Units=km,switch=T !numEQ 49083
new line.CTR235474 bus1=BMT103613974.1,bus2=BMT168370108.1,Phases=1,LineCode=tieSwitch1,Length=0.001,Units=km,switch=T !numEQ 49084
new line.CTR235705 bus1=BMT103612707.1,bus2=BMT103613183.1,Phases=1,LineCode=tieSwitch1,Length=0.001,Units=km,switch=T !numEQ 49001
new line.CTR235950 bus1=BMT103616074.1.2.3,bus2=BMT166976632.1.2.3,Phases=3,LineCode=tieSwitch,Length=0.001,Units=km,switch=T !numEQ 48920
new line.CTR236006 bus1=BMT103617215.3,bus2=BMT103617936.3,Phases=1,LineCode=tieSwitch1,Length=0.001,Units=km,switch=T !numEQ 48925
new line.CTR236139 bus1=BMT172244298.1,bus2=BMT3118565.1,Phases=1,LineCode=tieSwitch1,Length=0.001,Units=km,switch=T !numEQ 48888
open line.CTR236139 term=1
new line.CTR236167 bus1=BMT151801621.1.2.3,bus2=BMT151801656.1.2.3,Phases=3,LineCode=tieSwitch,Length=0.001,Units=km,switch=T !numEQ 48891
new line.CTR236181 bus1=BMT103612084.1.2.3,bus2=BMT160110234.1.2.3,Phases=3,LineCode=tieSwitch,Length=0.001,Units=km,switch=T !numEQ 48893
new line.CTR236195 bus1=BMT103612203.1,bus2=BMT103612217.1,Phases=1,LineCode=tieSwitch1,Length=0.001,Units=km,switch=T !numEQ 48895
new line.CTR236209 bus1=BMT103612175.1.2.3,bus2=BMT103615108.1.2.3,Phases=3,LineCode=tieSwitch,Length=0.001,Units=km,switch=T !numEQ 48897
new line.CTR237217 bus1=BMT103615129.3,bus2=BMT103615143.3,Phases=1,LineCode=tieSwitch1,Length=0.001,Units=km,switch=T !numEQ 48622
new line.CTR237245 bus1=BMT103612042.1.2.3,bus2=BMT103623347.1.2.3,Phases=3,LineCode=tieSwitch,Length=0.001,Units=km,switch=T !numEQ 48626
new line.CTR237259 bus1=BMT103615640.3,bus2=BMT103621975.3,Phases=1,LineCode=tieSwitch1,Length=0.001,Units=km,switch=T !numEQ 48628
new line.CTR328042 bus1=BMT103613463.1,bus2=BMT103614870.1,Phases=1,LineCode=tieSwitch1,Length=0.001,Units=km,switch=T !numEQ 126949
new line.CTR328056 bus1=BMT103613526.1,bus2=BMT157825114.1,Phases=1,LineCode=tieSwitch1,Length=0.001,Units=km,switch=T !numEQ 126950
new line.CTR328777 bus1=BMT103616655.2,bus2=BMT103616669.2,Phases=1,LineCode=tieSwitch1,Length=0.001,Units=km,switch=T !numEQ 125698
new line.CTR36611 bus1=BMT103623746.2,bus2=BMT167205494.2,Phases=1,LineCode=tieSwitch1,Length=0.001,Units=km,switch=T !numEQ 73746
new line.CTR36667 bus1=BMT103621107.1,bus2=BMT103621541.1,Phases=1,LineCode=tieSwitch1,Length=0.001,Units=km,switch=T !numEQ 73767
new line.CTR438670 bus1=BMT103619525.3,bus2=BMT103619602.3,Phases=1,LineCode=tieSwitch1,Length=0.001,Units=km,switch=T !numEQ 65879
new line.CTR438677 bus1=BMT103612686.1,bus2=BMT103613211.1,Phases=1,LineCode=tieSwitch1,Length=0.001,Units=km,switch=T !numEQ 65884
new line.CTR438712 bus1=BMT103621016.1,bus2=BMT165945694.1,Phases=1,LineCode=tieSwitch1,Length=0.001,Units=km,switch=T !numEQ 65994
new line.CTR438719 bus1=BMT103621079.1,bus2=BMT163727202.1,Phases=1,LineCode=tieSwitch1,Length=0.001,Units=km,switch=T !numEQ 65996
new line.CTR470996 bus1=BMT103619546.3,bus2=BMT103619553.3,Phases=1,LineCode=tieSwitch1,Length=0.001,Units=km,switch=T !numEQ 190855
new line.CTR52361 bus1=BMT103616284.1.2.3,bus2=BMT103616291.1.2.3,Phases=3,LineCode=tieSwitch,Length=0.001,Units=km,switch=T !numEQ 49206
new line.CTR675445 bus1=BMT103611937.1,bus2=BMT160647786.1,Phases=1,LineCode=tieSwitch1,Length=0.001,Units=km,switch=T !numEQ 209141
new line.CTR678791 bus1=BMT103621800.1,bus2=BMT103621842.1,Phases=1,LineCode=tieSwitch1,Length=0.001,Units=km,switch=T !numEQ 205272
new line.CTR742687 bus1=BMT103613323.1,bus2=BMT103613330.1,Phases=1,LineCode=tieSwitch1,Length=0.001,Units=km,switch=T !numEQ 224109
new line.CTR806156 bus1=BMT119150229.2,bus2=BMT167555807.2,Phases=1,LineCode=tieSwitch1,Length=0.001,Units=km,switch=T !numEQ 305847
new line.CTRR35287 bus1=BMT160110254.1.2.3,bus2=BMT158071815.1.2.3,Phases=3,LineCode=tieSwitch,Length=0.001,Units=km,switch=T !numEQ 380359
open line.CTRR35287 term=1
new line.CTRR35582 bus1=BMT158458687.2,bus2=BMT164392348.2,Phases=1,LineCode=tieSwitch1,Length=0.001,Units=km,switch=T !numEQ 206339
new line.CTRR35583 bus1=BMT103616529.2,bus2=BMT165468561.2,Phases=1,LineCode=tieSwitch1,Length=0.001,Units=km,switch=T !numEQ 48513
new line.CTRR35584 bus1=BMT103612420.1,bus2=BMT103612602.1,Phases=1,LineCode=tieSwitch1,Length=0.001,Units=km,switch=T !numEQ 48625
new line.CTRR35630 bus1=BMT103615479.2,bus2=BMT172171071.2,Phases=1,LineCode=tieSwitch1,Length=0.001,Units=km,switch=T !numEQ 48985
new line.CTR115277 bus1=BMT103619805.1,bus2=BMT103621674.1,Phases=1,LineCode=tieSwitch1,Length=0.001,Units=km,switch=T !numEQ 144157
new line.CTR248466 bus1=BMT103613638.1,bus2=BMT159523142.1,Phases=1,LineCode=tieSwitch1,Length=0.001,Units=km,switch=T !numEQ 49082
new line.CTR44773 bus1=BMT103620211.1,bus2=BMT165942608.1,Phases=1,LineCode=tieSwitch1,Length=0.001,Units=km,switch=T !numEQ 65997
new line.CTR483869 bus1=BMT169750538.1,bus2=BMT169750552.1,Phases=1,LineCode=tieSwitch1,Length=0.001,Units=km,switch=T !numEQ 185761
new line.CTR52823 bus1=BMT103615794.1,bus2=BMT103619392.1,Phases=1,LineCode=tieSwitch1,Length=0.001,Units=km,switch=T !numEQ 49095
new line.CTR684251 bus1=BMT103620351.1,bus2=BMT169821432.1,Phases=1,LineCode=tieSwitch1,Length=0.001,Units=km,switch=T !numEQ 209054
new line.CTR732831 bus1=BMT103614002.1,bus2=BMT103614296.1,Phases=1,LineCode=tieSwitch1,Length=0.001,Units=km,switch=T !numEQ 219159
new line.CTR735834 bus1=BMT103614247.1,bus2=BMT103614261.1,Phases=1,LineCode=tieSwitch1,Length=0.001,Units=km,switch=T !numEQ 224110
new line.CTR735841 bus1=BMT103621212.1,bus2=BMT162549837.1,Phases=1,LineCode=tieSwitch1,Length=0.001,Units=km,switch=T !numEQ 224326
new line.CTR738480 bus1=BMT103616606.2,bus2=BMT172578639.2,Phases=1,LineCode=tieSwitch1,Length=0.001,Units=km,switch=T !numEQ 224514
new line.CTR889304 bus1=BMT168375929.3,bus2=BMT168375942.3,Phases=1,LineCode=tieSwitch1,Length=0.001,Units=km,switch=T !numEQ 260973
new line.CTR904927 bus1=BMT168286439.2,bus2=BMT168373714.2,Phases=1,LineCode=tieSwitch1,Length=0.001,Units=km,switch=T !numEQ 276789
new line.CTR917704 bus1=BMT172578651.2,bus2=BMT172772724.2,Phases=1,LineCode=tieSwitch1,Length=0.001,Units=km,switch=T !numEQ 322290
new line.CTR918951 bus1=BMT172939027.1,bus2=BMT172939045.1,Phases=1,LineCode=tieSwitch1,Length=0.001,Units=km,switch=T !numEQ 322468
new line.CTRR23276 bus1=BMT152415401.1.2.3,bus2=BMT170375574.1.2.3,Phases=3,LineCode=tieSwitch,Length=0.001,Units=km,switch=T !numEQ 48892
new line.CTRR7981 bus1=BMT103612252.1,bus2=BMT172244255.1,Phases=1,LineCode=tieSwitch1,Length=0.001,Units=km,switch=T !numEQ 48896
new line.CTR342630 bus1=BMT103615458.1.2.3,bus2=BMT103623305.1.2.3,Phases=3,LineCode=tieSwitch,Length=0.001,Units=km,switch=T !numEQ 130649
new line.CTR344023 bus1=BMT103620085.1,bus2=BMT159870090.1,Phases=1,LineCode=tieSwitch1,Length=0.001,Units=km,switch=T !numEQ 127851
new line.CTR453300 bus1=BMT171216318.1.2.3,bus2=BMT172276606.1.2.3,Phases=3,LineCode=tieSwitch,Length=0.001,Units=km,switch=T !numEQ 48915
new line.CTR453650 bus1=BMT157759208.2,bus2=BMT159446235.2,Phases=1,LineCode=tieSwitch1,Length=0.001,Units=km,switch=T !numEQ 65980
new line.CTR549571 bus1=BMT103612798.1,bus2=BMT103612903.1,Phases=1,LineCode=tieSwitch1,Length=0.001,Units=km,switch=T !numEQ 142297
new line.CTR655096 bus1=BMT103616452.1,bus2=BMT103618314.1,Phases=1,LineCode=tieSwitch1,Length=0.001,Units=km,switch=T !numEQ 164858
new line.CTR705517 bus1=BMT103621450.1,bus2=BMT159418350.1,Phases=1,LineCode=tieSwitch1,Length=0.001,Units=km,switch=T !numEQ 211366
new line.CTR708254 bus1=BMT103611916.3,bus2=BMT103623466.3,Phases=1,LineCode=tieSwitch1,Length=0.001,Units=km,switch=T !numEQ 219278
new line.CTR870873 bus1=BMT159313101.1,bus2=BMT159314211.1,Phases=1,LineCode=tieSwitch1,Length=0.001,Units=km,switch=T !numEQ 245217
new line.CTR884121 bus1=BMT160590242.3,bus2=BMT160591635.3,Phases=1,LineCode=tieSwitch1,Length=0.001,Units=km,switch=T !numEQ 250576
new line.CTR898903 bus1=BMT166331991.3,bus2=BMT166331992.3,Phases=1,LineCode=tieSwitch1,Length=0.001,Units=km,switch=T !numEQ 247656
new line.CTR898911 bus1=BMT166334520.1.2.3,bus2=BMT166893101.1.2.3,Phases=3,LineCode=tieSwitch,Length=0.001,Units=km,switch=T !numEQ 247654
new line.CTR898917 bus1=BMT166336955.1.2.3,bus2=BMT167174645.1.2.3,Phases=3,LineCode=tieSwitch,Length=0.001,Units=km,switch=T !numEQ 247653
new line.CTR898918 bus1=BMT166337245.3,bus2=BMT166893986.3,Phases=1,LineCode=tieSwitch1,Length=0.001,Units=km,switch=T !numEQ 247655
new line.CTR140771 bus1=BMT103615507.3,bus2=BMT103622143.3,Phases=1,LineCode=tieSwitch1,Length=0.001,Units=km,switch=T !numEQ 48212
new line.CTR502944 bus1=BMT103619847.1,bus2=BMT103619854.1,Phases=1,LineCode=tieSwitch1,Length=0.001,Units=km,switch=T !numEQ 197758
new line.CTR502951 bus1=BMT103619791.1,bus2=BMT157961207.1,Phases=1,LineCode=tieSwitch1,Length=0.001,Units=km,switch=T !numEQ 197757
new line.CTR55329 bus1=BMT103615801.3,bus2=BMT103619014.3,Phases=1,LineCode=tieSwitch1,Length=0.001,Units=km,switch=T !numEQ 48428
new line.CTR553799 bus1=BMT103622430.2,bus2=BMT103622990.2,Phases=1,LineCode=tieSwitch1,Length=0.001,Units=km,switch=T !numEQ 49502
new line.CTR553827 bus1=BMT103614520.1,bus2=BMT103614534.1,Phases=1,LineCode=tieSwitch1,Length=0.001,Units=km,switch=T !numEQ 49523
new line.CTR553841 bus1=BMT103614394.1,bus2=BMT103614485.1,Phases=1,LineCode=tieSwitch1,Length=0.001,Units=km,switch=T !numEQ 49525
new line.CTR55385 bus1=BMT103623725.2,bus2=BMT122936760.2,Phases=1,LineCode=tieSwitch1,Length=0.001,Units=km,switch=T !numEQ 48431
new line.CTR554065 bus1=BMT103617348.2,bus2=BMT103617362.2,Phases=1,LineCode=tieSwitch1,Length=0.001,Units=km,switch=T !numEQ 49406
new line.CTR554821 bus1=BMT103612623.1,bus2=BMT103613288.1,Phases=1,LineCode=tieSwitch1,Length=0.001,Units=km,switch=T !numEQ 49168
new line.CTR555129 bus1=BMT153024903.1,bus2=BMT153024906.1,Phases=1,LineCode=tieSwitch1,Length=0.001,Units=km,switch=T !numEQ 49093
new line.CTR555157 bus1=BMT103619105.3,bus2=BMT103619322.3,Phases=1,LineCode=tieSwitch1,Length=0.001,Units=km,switch=T !numEQ 49048
new line.CTR555241 bus1=BMT103617173.2,bus2=BMT103618062.2,Phases=1,LineCode=tieSwitch1,Length=0.001,Units=km,switch=T !numEQ 49055
new line.CTR555269 bus1=BMT103617166.3,bus2=BMT103618118.3,Phases=1,LineCode=tieSwitch1,Length=0.001,Units=km,switch=T !numEQ 49057
new line.CTR555297 bus1=BMT103616067.1.2.3,bus2=BMT103616081.1.2.3,Phases=3,LineCode=tieSwitch,Length=0.001,Units=km,switch=T !numEQ 49060
new line.CTR555724 bus1=BMT103622255.2,bus2=BMT172170844.2,Phases=1,LineCode=tieSwitch1,Length=0.001,Units=km,switch=T !numEQ 48947
new line.CTR555801 bus1=BMT103612035.1.2.3,bus2=BMT103615451.1.2.3,Phases=3,LineCode=tieSwitch,Length=0.001,Units=km,switch=T !numEQ 48904
new line.CTR555829 bus1=BMT103619707.1,bus2=BMT103621870.1,Phases=1,LineCode=tieSwitch1,Length=0.001,Units=km,switch=T !numEQ 48905
new line.CTR555857 bus1=BMT103615563.3,bus2=BMT159113605.3,Phases=1,LineCode=tieSwitch1,Length=0.001,Units=km,switch=T !numEQ 48907
new line.CTR555885 bus1=BMT103619742.1,bus2=BMT103619770.1,Phases=1,LineCode=tieSwitch1,Length=0.001,Units=km,switch=T !numEQ 48909
new line.CTR555913 bus1=BMT103619497.3,bus2=BMT103619504.3,Phases=1,LineCode=tieSwitch1,Length=0.001,Units=km,switch=T !numEQ 48911
new line.CTR558503 bus1=BMT103611769.1.2.3,bus2=BMT169750529.1.2.3,Phases=3,LineCode=tieSwitch,Length=0.001,Units=km,switch=T !numEQ 48189
new line.CTR558699 bus1=BMT103613659.1,bus2=BMT151619138.1,Phases=1,LineCode=tieSwitch1,Length=0.001,Units=km,switch=T !numEQ 48112
new line.CTR711201 bus1=BMT103620456.1,bus2=BMT103620477.1,Phases=1,LineCode=tieSwitch1,Length=0.001,Units=km,switch=T !numEQ 212873
new line.CTR712349 bus1=BMT103621296.1,bus2=BMT103621366.1,Phases=1,LineCode=tieSwitch1,Length=0.001,Units=km,switch=T !numEQ 214976
new line.CTR712818 bus1=BMT103621254.1,bus2=BMT159689538.1,Phases=1,LineCode=tieSwitch1,Length=0.001,Units=km,switch=T !numEQ 214975
new line.CTR714148 bus1=BMT103620841.1,bus2=BMT103620855.1,Phases=1,LineCode=tieSwitch1,Length=0.001,Units=km,switch=T !numEQ 218242
new line.CTR714155 bus1=BMT103620813.1,bus2=BMT103620876.1,Phases=1,LineCode=tieSwitch1,Length=0.001,Units=km,switch=T !numEQ 209187
new line.CTR714260 bus1=BMT103612728.1,bus2=BMT158828489.1,Phases=1,LineCode=tieSwitch1,Length=0.001,Units=km,switch=T !numEQ 219315
new line.CTR716073 bus1=BMT103621380.1,bus2=BMT103621415.1,Phases=1,LineCode=tieSwitch1,Length=0.001,Units=km,switch=T !numEQ 214977
new line.CTR856600 bus1=BMT160091479.2,bus2=BMT160091482.2,Phases=1,LineCode=tieSwitch1,Length=0.001,Units=km,switch=T !numEQ 380360
new line.CTR856658 bus1=BMT170375587.1.2.3,bus2=BMT151821634.1.2.3,Phases=3,LineCode=tieSwitch,Length=0.001,Units=km,switch=T !numEQ 380366
new line.CTR856662 bus1=BMT151823395.1,bus2=BMT151827745.1,Phases=1,LineCode=tieSwitch1,Length=0.001,Units=km,switch=T !numEQ 380363
new line.CTR856663 bus1=BMT151823567.3,bus2=BMT160105096.3,Phases=1,LineCode=tieSwitch1,Length=0.001,Units=km,switch=T !numEQ 380364
new line.CTR856669 bus1=BMT160108468.2,bus2=BMT160109205.2,Phases=1,LineCode=tieSwitch1,Length=0.001,Units=km,switch=T !numEQ 380362
new line.CTR856673 bus1=BMT160109404.3,bus2=BMT160109586.3,Phases=1,LineCode=tieSwitch1,Length=0.001,Units=km,switch=T !numEQ 380367
new line.CTR871139 bus1=BMT156041170.1,bus2=BMT167920713.1,Phases=1,LineCode=tieSwitch1,Length=0.001,Units=km,switch=T !numEQ 240379
new line.CTR901068 bus1=BMT166976639.1.2.3,bus2=BMT166976825.1.2.3,Phases=3,LineCode=tieSwitch,Length=0.001,Units=km,switch=T !numEQ 375130
new line.CTR901070 bus1=BMT166976784.1,bus2=BMT167226866.1,Phases=1,LineCode=tieSwitch1,Length=0.001,Units=km,switch=T !numEQ 375156
new line.CTR914115 bus1=BMT171462724.2,bus2=BMT171462746.2,Phases=1,LineCode=tieSwitch1,Length=0.001,Units=km,switch=T !numEQ 217530
new line.CTRR12657 bus1=BMT103615689.1,bus2=BMT103619616.1,Phases=1,LineCode=tieSwitch1,Length=0.001,Units=km,switch=T !numEQ 48912
new line.CTR165579 bus1=BMT103618013.3,bus2=BMT103618041.3,Phases=1,LineCode=tieSwitch1,Length=0.001,Units=km,switch=T !numEQ 125105
new line.CTR165607 bus1=BMT103621240.1,bus2=BMT154912711.1,Phases=1,LineCode=tieSwitch1,Length=0.001,Units=km,switch=T !numEQ 125106
new line.CTR216322 bus1=BMT158828490.1,bus2=BMT158828930.1,Phases=1,LineCode=tieSwitch1,Length=0.001,Units=km,switch=T !numEQ 78700
new line.CTR238645 bus1=BMT103611755.1.2.3,bus2=BMT171160739.1.2.3,Phases=3,LineCode=tieSwitch,Length=0.001,Units=km,switch=T !numEQ 48210
new line.CTR346830 bus1=BMT103619777.1,bus2=BMT103621793.1,Phases=1,LineCode=tieSwitch1,Length=0.001,Units=km,switch=T !numEQ 48991
new line.CTR426987 bus1=BMT103620043.1,bus2=BMT103620050.1,Phases=1,LineCode=tieSwitch1,Length=0.001,Units=km,switch=T !numEQ 48013
new line.CTR4271 bus1=BMT103622647.2,bus2=BMT103622661.2,Phases=1,LineCode=tieSwitch1,Length=0.001,Units=km,switch=T !numEQ 203466
new line.CTR51255 bus1=BMT160091306.1.2.3,bus2=BMT160110252.1.2.3,Phases=3,LineCode=tieSwitch,Length=0.001,Units=km,switch=T !numEQ 49580
new line.CTR51325 bus1=BMT103622437.2,bus2=BMT103623018.2,Phases=1,LineCode=tieSwitch1,Length=0.001,Units=km,switch=T !numEQ 49529
new line.CTR51353 bus1=BMT103623060.2,bus2=BMT103623207.2,Phases=1,LineCode=tieSwitch1,Length=0.001,Units=km,switch=T !numEQ 49531
new line.CTR51381 bus1=BMT103623109.2,bus2=BMT103623116.2,Phases=1,LineCode=tieSwitch1,Length=0.001,Units=km,switch=T !numEQ 49532
new line.CTR663622 bus1=BMT103620078.1,bus2=BMT158521276.1,Phases=1,LineCode=tieSwitch1,Length=0.001,Units=km,switch=T !numEQ 127850
new line.CTR666037 bus1=BMT103616620.2,bus2=BMT103616774.2,Phases=1,LineCode=tieSwitch1,Length=0.001,Units=km,switch=T !numEQ 50820
new line.CTR717123 bus1=BMT103620001.1,bus2=BMT103621604.1,Phases=1,LineCode=tieSwitch1,Length=0.001,Units=km,switch=T !numEQ 213144
new line.CTR717662 bus1=BMT103618643.2,bus2=BMT103618699.2,Phases=1,LineCode=tieSwitch1,Length=0.001,Units=km,switch=T !numEQ 223623
new line.CTR717683 bus1=BMT103618594.2,bus2=BMT103618601.2,Phases=1,LineCode=tieSwitch1,Length=0.001,Units=km,switch=T !numEQ 166013
new line.CTR718551 bus1=BMT103619021.3,bus2=BMT172364061.3,Phases=1,LineCode=tieSwitch1,Length=0.001,Units=km,switch=T !numEQ 219964
new line.CTR719083 bus1=BMT103618706.2,bus2=BMT103618769.2,Phases=1,LineCode=tieSwitch1,Length=0.001,Units=km,switch=T !numEQ 203785
new line.CTR722415 bus1=BMT103617943.3,bus2=BMT103617950.3,Phases=1,LineCode=tieSwitch1,Length=0.001,Units=km,switch=T !numEQ 223840
new line.CTR723682 bus1=BMT103619420.2,bus2=BMT103619434.2,Phases=1,LineCode=tieSwitch1,Length=0.001,Units=km,switch=T !numEQ 214973
new line.CTR782601 bus1=BMT104576915.2,bus2=BMT104576922.2,Phases=1,LineCode=tieSwitch1,Length=0.001,Units=km,switch=T !numEQ 287920
new line.CTR844640 bus1=BMT148380924.1,bus2=BMT148380927.1,Phases=1,LineCode=tieSwitch1,Length=0.001,Units=km,switch=T !numEQ 190016
new line.CTR916281 bus1=BMT172105991.2,bus2=BMT172105994.2,Phases=1,LineCode=tieSwitch1,Length=0.001,Units=km,switch=T !numEQ 319172
new line.CTR916285 bus1=BMT172109090.2,bus2=BMT172109123.2,Phases=1,LineCode=tieSwitch1,Length=0.001,Units=km,switch=T !numEQ 319168
new line.CTR917052 bus1=BMT172364081.3,bus2=BMT172364097.3,Phases=1,LineCode=tieSwitch1,Length=0.001,Units=km,switch=T !numEQ 322172
new line.CTRR19216 bus1=BMT103612385.1,bus2=BMT103613344.1,Phases=1,LineCode=tieSwitch1,Length=0.001,Units=km,switch=T !numEQ 48609
