2024_89_CemigReconfigurationCases/1_AlimsCemig/UHSG27/UHSG27SegmentosBT.dss
new line.10018772 bus1=BBT3461880.1.2.0,bus2=BBT3461887.1.2.0,Phases=2,Linecode=BT518_BT518_7_2_1,Length=0.000500000,Units=km
new line.10018779 bus1=BBT3461887.2.0,bus2=BBT3461915.2.0,Phases=1,Linecode=BT106_BT106_7_1_1,Length=0.056337000,Units=km
new line.10018786 bus1=BBT3461887.1.0,bus2=BBT3461894.1.0,Phases=1,Linecode=BT106_BT106_7_1_1,Length=0.079898000,Units=km
new line.10018961 bus1=BBT3462153.1.2.0,bus2=BBT3462160.1.2.0,Phases=2,Linecode=BT106_BT106_7_2_1,Length=0.049227000,Units=km
new line.10019542 bus1=BBT3107596.1.2.0,bus2=BBT3107617.1.2.0,Phases=2,Linecode=BT808_BT808_4_2_3,Length=0.042996000,Units=km
new line.10021271 bus1=BBT3441167.1.2.0,bus2=BBT3441174.1.2.0,Phases=2,Linecode=BT518_BT518_7_2_1,Length=0.000500000,Units=km
new line.10021663 bus1=BBT3447712.1.2.0,bus2=BBT3447789.1.2.0,Phases=2,Linecode=BT811_BT811_4_2_3,Length=0.053469000,Units=km
new line.10022762 bus1=BBT3163575.1.2.0,bus2=BBT3163582.1.2.0,Phases=2,Linecode=BT106_BT106_7_2_1,Length=0.040432000,Units=km
new line.10022776 bus1=BBT3163589.1.2.0,bus2=BBT3163596.1.2.0,Phases=2,Linecode=BT106_BT106_7_2_1,Length=0.063545000,Units=km
new line.10022818 bus1=BBT3163505.1.2.0,bus2=BBT6721248.1.2.0,Phases=2,Linecode=BT808_BT808_4_2_3,Length=0.045326000,Units=km
new line.10023357 bus1=BBT3434454.1.0,bus2=BBT3434461.1.0,Phases=1,Linecode=BT811_BT811_4_1_3,Length=0.085991000,Units=km
new line.10023378 bus1=BBT3434419.1.0,bus2=BBT3434426.1.0,Phases=1,Linecode=BT811_BT811_4_1_3,Length=0.108964000,Units=km
new line.10023399 bus1=BBT3288084.1.0,bus2=BBT3434419.1.0,Phases=1,Linecode=BT811_BT811_4_1_3,Length=0.022353000,Units=km
new line.10023406 bus1=BBT3288077.1.2.0,bus2=BBT3288084.1.2.0,Phases=2,Linecode=BT518_BT518_7_2_1,Length=0.000500000,Units=km
new line.10024659 bus1=BBT3445038.1.2.0,bus2=BBT3445045.1.2.0,Phases=2,Linecode=BT518_BT518_7_2_1,Length=0.000500000,Units=km
new line.10025912 bus1=BBT3267028.1.2.0,bus2=BBT3267035.1.2.0,Phases=2,Linecode=BT816_BT816_4_2_2,Length=0.098459000,Units=km
new line.10026437 bus1=BBT3873858.1.2.0,bus2=BBT3873865.1.2.0,Phases=2,Linecode=BT518_BT518_7_2_1,Length=0.000500000,Units=km
new line.10026626 bus1=BBT3802486.1.0,bus2=BBT3802493.1.0,Phases=1,Linecode=BT106_BT106_7_1_1,Length=0.082437000,Units=km
new line.10027074 bus1=BBT3809661.1.2.0,bus2=BBT3809668.1.2.0,Phases=2,Linecode=BT816_BT816_4_2_2,Length=0.072510000,Units=km
new line.10027711 bus1=BBT3806168.1.0,bus2=BBT3806189.1.0,Phases=1,Linecode=BT816_BT816_4_1_2,Length=0.087294000,Units=km
new line.10028355 bus1=BBT3815345.1.0,bus2=BBT3815352.1.0,Phases=1,Linecode=BT107_BT106_7_1_1,Length=0.060809000,Units=km
new line.10028936 bus1=BBT3801856.1.0,bus2=BBT3801863.1.0,Phases=1,Linecode=BT106_BT106_7_1_1,Length=0.074308000,Units=km
new line.10028985 bus1=BBT3801912.1.0,bus2=BBT3801940.1.0,Phases=1,Linecode=BT106_BT106_7_1_1,Length=0.042414000,Units=km
new line.10029006 bus1=BBT3801940.1.0,bus2=BBT3801947.1.0,Phases=1,Linecode=BT106_BT106_7_1_1,Length=0.049985000,Units=km
new line.10029055 bus1=BBT3802010.1.0,bus2=BBT3802045.1.0,Phases=1,Linecode=BT106_BT106_7_1_1,Length=0.129961000,Units=km
new line.10029097 bus1=BBT3802045.1.0,bus2=BBT3818334.1.0,Phases=1,Linecode=BT106_BT106_7_1_1,Length=0.080599000,Units=km
new line.10029118 bus1=BBT3818103.2.0,bus2=BBT3818110.2.0,Phases=1,Linecode=BT106_BT106_7_1_1,Length=0.080599000,Units=km
new line.10029146 bus1=BBT3817991.1.0,bus2=BBT3817998.1.0,Phases=1,Linecode=BT106_BT106_7_1_1,Length=0.054902000,Units=km
new line.10029181 bus1=BBT3817865.1.0,bus2=BBT3817872.1.0,Phases=1,Linecode=BT106_BT106_7_1_1,Length=0.041219000,Units=km
new line.10029202 bus1=BBT3817907.2.0,bus2=BBT3817921.2.0,Phases=1,Linecode=BT106_BT106_7_1_1,Length=0.070690000,Units=km
new line.10029482 bus1=BBT3267147.1.2.0,bus2=BBT3267154.1.2.0,Phases=2,Linecode=BT518_BT518_7_2_1,Length=0.000500000,Units=km
new line.10029594 bus1=BBT3418305.1.2.0,bus2=BBT3418312.1.2.0,Phases=2,Linecode=BT518_BT518_7_2_1,Length=0.000500000,Units=km
new line.10029601 bus1=BBT3418312.1.2.0,bus2=BBT3418319.1.2.0,Phases=2,Linecode=BT807_BT807_4_2_3,Length=0.087437000,Units=km
new line.10029608 bus1=BBT3418312.1.2.0,bus2=BBT3418340.1.2.0,Phases=2,Linecode=BT807_BT807_4_2_3,Length=0.081681000,Units=km
new line.10030091 bus1=BBT3534575.1.2.0,bus2=BBT5669967.1.2.0,Phases=2,Linecode=BT814_BT814_4_2_3,Length=0.099968000,Units=km
new line.10030196 bus1=BBT3266160.1.0,bus2=BBT3266167.1.0,Phases=1,Linecode=BT106_BT106_7_1_1,Length=0.063225000,Units=km
new line.10030819 bus1=BBT3263843.1.2.0,bus2=BBT2303415.1.2.0,Phases=2,Linecode=BT808_BT808_4_2_3,Length=0.048832000,Units=km
new line.10030826 bus1=BBT3263843.1.2.0,bus2=BBT3263976.1.2.0,Phases=2,Linecode=BT808_BT808_4_2_3,Length=0.069159000,Units=km
new line.10030868 bus1=BBT3263962.1.2.0,bus2=BBT3443358.1.2.0,Phases=2,Linecode=BT801_BT801_4_2_3,Length=0.074663000,Units=km
new line.10030980 bus1=BBT3436939.1.0,bus2=BBT3436946.1.0,Phases=1,Linecode=BT807_BT807_4_1_3,Length=0.036045000,Units=km
...